LTspice 26.0.1 for Windows
Circuit: C:\users\enslenc1\documents\INVERTER.spi
Start Time: Wed Feb 18 18:06:12 2026
No analysis specified.