LTspice 26.0.2 for Windows
Circuit: C:\Users\coleb\Documents\GitHub\VLSI\ElectricVLSI\Libraries\NANDNet.spi
Start Time: Thu May 21 15:10:56 2026
Ignoring BSIM parameter XL
Ignoring BSIM parameter XW
Ignoring BSIM parameter XL
Ignoring BSIM parameter XW

.step vbias=0.5
solver = Normal
Maximum thread count: 16
tnom = 27
temp = 27
method = trap
WARNING: Node vbias is floating.

Direct Newton iteration succeeded in finding operating point.

.step vbias=0.6
Direct Newton iteration succeeded in finding operating point.

.step vbias=0.7
Direct Newton iteration succeeded in finding operating point.

.step vbias=0.8
Direct Newton iteration succeeded in finding operating point.

.step vbias=0.9
Direct Newton iteration succeeded in finding operating point.

.step vbias=1
Direct Newton iteration succeeded in finding operating point.

.step vbias=1.1
Direct Newton iteration succeeded in finding operating point.

.step vbias=1.2
Direct Newton iteration succeeded in finding operating point.

.step vbias=1.3
Direct Newton iteration succeeded in finding operating point.

.step vbias=1.4
Direct Newton iteration succeeded in finding operating point.

.step vbias=1.5
Direct Newton iteration succeeded in finding operating point.
Total elapsed time: 0.522 seconds.

Files loaded:
C:\Users\coleb\Documents\GitHub\VLSI\ElectricVLSI\Libraries\NANDNet.spi
C:\Users\coleb\Documents\GitHub\VLSI\ElectricVLSI\TransistorSpecs\tsmc018.lib

