LTspice 26.0.1 for Windows
Circuit: C:\users\enslenc1\documents\NAND-ICON.spi
Start Time: Wed Feb 25 17:34:00 2026
Ignoring BSIM parameter XL
Ignoring BSIM parameter XW
Ignoring BSIM parameter XL
Ignoring BSIM parameter XW
solver = Normal
Maximum thread count: 32
tnom = 27
temp = 27
method = trap
Warning: Pd = 0 is less than W.
Warning: Ps = 0 is less than W.
Warning: Pd = 0 is less than W.
Warning: Ps = 0 is less than W.
Direct Newton iteration succeeded in finding operating point.
Total elapsed time: 0.200 seconds.

Files loaded:
C:\users\enslenc1\documents\NAND-ICON.spi
C:\Users\enslenc1\Documents\GitHub\VLSI\ElectricVLSI\TransistorSpecs\tsmc018.lib

tfall1: time =4.01292814208e-08 at 4.01292814208e-08
tfall2: time =4.12467820504e-08 at 4.12467820504e-08
trise1: time =1.0082491924e-08 at 1.0082491924e-08
trise2: time =1.09457823583e-08 at 1.09457823583e-08
tphl1: time =4.00005e-08 at 4.00005e-08
tphl2: time =4.05627923593e-08 at 4.05627923593e-08
tplh1: time =1.00015e-08 at 1.00015e-08
tplh2: time =1.0398538828e-08 at 1.0398538828e-08
