LTspice 26.0.1 for Windows
Circuit: C:\users\enslenc1\documents\NMOS.spi
Start Time: Wed Feb 18 15:18:53 2026
Ignoring BSIM parameter XL
Ignoring BSIM parameter XW
solver = Normal
Maximum thread count: 32
tnom = 27
temp = 27
method = trap
Warning: Pd = 0 is less than W.
Warning: Ps = 0 is less than W.
.OP point found by inspection.
.step vg=0 
.step vg=0.5 
.step vg=1 
.step vg=1.5 
.step vg=2 
.step vg=2.5 
.step vg=3 
Total elapsed time: 0.315 seconds.

Files loaded:
C:\users\enslenc1\documents\NMOS.spi
C:\Users\enslenc1\AppData\Local\LTspice\lib\sub\tsmc018.lib

